@<TRIPOS>MOLECULE
UTP2
   40    41     4     0     1 
SMALL
USER_CHARGES
@<TRIPOS>ATOM
  1 OR         -1.0350    4.2058    1.8680 OS        1 P2M       -0.6911 ****
  2 P          -1.1422    5.7966    2.5798 P         1 P2M        1.2409 ****
  3 OP1         0.1764    5.9238    3.3066 O2        1 P2M       -0.9180 ****
  4 OP2        -1.3103    6.6535    1.3552 O2        1 P2M       -0.9180 ****
  5 OP3        -2.3498    5.6761    3.4799 O2        1 P2M       -0.9180 ****
  6 OR         -1.6890    2.1386    0.5426 OS        2 P1        -0.4585 ****
  7 P          -2.2447    3.6256    0.9781 P         2 P1         0.8765 ****
  8 OP1        -2.4496    4.5328   -0.1719 O2        2 P1        -0.7090 ****
  9 OP2        -3.4503    3.5723    1.8191 O2        2 P1        -0.7090 ****
 10 OR         -1.6507   -0.1834   -0.4891 OS        3 P1        -0.4585 ****
 11 P          -2.6193    1.1346   -0.3051 P         3 P1         0.8765 ****
 12 OP1        -2.9622    1.7913   -1.5851 O2        3 P1        -0.7090 ****
 13 OP2        -3.8330    0.8592    0.4791 O2        3 P1        -0.7090 ****
 14 O3'        -1.2652   -3.6628    0.8558 OH        4 U5        -0.6262 ****
 15 H3T        -0.8814   -3.8963    1.6903 HO        4 U5         0.4220 ****
 16 C1'         1.2615   -2.4159   -1.4369 CT        4 U5         0.0822 ****
 17 H1'         1.7878   -2.9527   -2.2068 H2        4 U5         0.1628 ****
 18 C2'         0.9000   -3.3601   -0.2871 CT        4 U5         0.1853 ****
 19 H2'         1.6703   -3.3954    0.4732 H1        4 U5         0.0309 ****
 20 C3'        -0.4312   -2.7674    0.1792 CT        4 U5         0.1643 ****
 21 H3'        -0.2595   -1.8747    0.7708 H1        4 U5         0.0367 ****
 22 C4'        -1.0469   -2.3915   -1.1617 CT        4 U5         0.1704 ****
 23 H4'        -1.4472   -3.2860   -1.6228 H1        4 U5         0.0780 ****
 24 C5'        -2.1342   -1.3432   -1.1287 CT        4 U5         0.1271 ****
 25 H5'1       -2.4324   -1.0996   -2.1441 H1        4 U5         0.0406 ****
 26 H5'2       -2.9910   -1.7280   -0.5826 H1        4 U5         0.0406 ****
 27 O4'         0.0547   -1.9231   -1.9214 OS        4 U5        -0.3981 ****
 28 O2'         0.7004   -4.6115   -0.8756 OH        4 U5        -0.6308 ****
 29 H2T         0.4529   -5.2448   -0.2167 HO        4 U5         0.4266 ****
 30 O4          4.6525    1.6656   -0.0885 O         4 U5        -0.5681 ****
 31 C4          3.8466    0.8294   -0.3706 C         4 U5         0.5967 ****
 32 N3          4.2318   -0.4993   -0.5140 NA        4 U5        -0.3758 ****
 33 H3          5.1991   -0.7042   -0.3767 H         4 U5         0.3092 ****
 34 C2          3.4459   -1.5719   -0.8290 C         4 U5         0.4982 ****
 35 O2          3.8837   -2.6838   -0.9257 O         4 U5        -0.5604 ****
 36 N1          2.1126   -1.2866   -1.0160 N*        4 U5         0.0735 ****
 37 C6          1.6418    0.0038   -0.9061 CM        4 U5        -0.1328 ****
 38 H6          0.5937    0.1158   -1.0812 H4        4 U5         0.2122 ****
 39 C5          2.4245    1.0367   -0.5953 CM        4 U5        -0.3355 ****
 40 H5          2.0353    2.0303   -0.5101 HA        4 U5         0.1746 ****
@<TRIPOS>BOND
    1     2     3 1
    2     2     4 1
    3     2     5 1
    4     1     2 1
    5     1     7 1
    6     7     8 1
    7     7     9 1
    8     6     7 1
    9     6    11 1
   10    11    12 1
   11    11    13 1
   12    10    11 1
   13    10    24 1
   14    39    40 1
   15    37    38 1
   16    37    39 1
   17    36    37 1
   18    34    35 1
   19    34    36 1
   20    32    33 1
   21    32    34 1
   22    31    32 1
   23    31    39 1
   24    30    31 1
   25    28    29 1
   26    24    25 1
   27    24    26 1
   28    22    23 1
   29    22    24 1
   30    22    27 1
   31    20    21 1
   32    20    22 1
   33    18    19 1
   34    18    20 1
   35    18    28 1
   36    16    17 1
   37    16    18 1
   38    16    27 1
   39    16    36 1
   40    14    15 1
   41    14    20 1
@<TRIPOS>SUBSTRUCTURE
      1  P2M              1 ****               0 ****  **** 
      2   P1              6 ****               0 ****  **** 
      3   P1             10 ****               0 ****  **** 
      4   U5             14 ****               0 ****  **** 
